    54
siesta unit cell
Ag     2.40600113     0.00000000    -1.48699070
Ag     2.40600113     0.00000000     1.48699070
Ag    -2.40600113     0.00000000    -1.48699070
Ag    -2.40600113     0.00000000     1.48699070
Ag    -1.48699070     2.40600113     0.00000000
Ag     1.48699070     2.40600113     0.00000000
Ag    -1.48699070    -2.40600113     0.00000000
Ag     1.48699070    -2.40600113     0.00000000
Ag     0.00000000    -1.48699070     2.40600113
Ag     0.00000000     1.48699070     2.40600113
Ag     0.00000000    -1.48699070    -2.40600113
Ag     0.00000000     1.48699070    -2.40600113
Ag     4.81201226     0.00000000    -2.97398140
Ag     4.81201226     0.00000000     0.00000000
Ag     4.81201226     0.00000000     2.97398140
Ag    -4.81201226     0.00000000    -2.97398140
Ag    -4.81201226     0.00000000     0.00000000
Ag    -4.81201226     0.00000000     2.97398140
Ag    -2.97398140     4.81201226     0.00000000
Ag     0.00000000     4.81201226     0.00000000
Ag     2.97398140     4.81201226     0.00000000
Ag    -2.97398140    -4.81201226     0.00000000
Ag     0.00000000    -4.81201226     0.00000000
Ag     2.97398140    -4.81201226     0.00000000
Ag     0.00000000    -2.97398140     4.81201226
Ag     0.00000000     0.00000000     4.81201226
Ag     0.00000000     2.97398140     4.81201226
Ag     0.00000000    -2.97398140    -4.81201226
Ag     0.00000000     0.00000000    -4.81201226
Ag     0.00000000     2.97398140    -4.81201226
Ag     2.40600113    -1.48699070     3.89300183
Ag     2.40600113     1.48699070     3.89300183
Ag     2.40600113    -1.48699070    -3.89300183
Ag     2.40600113     1.48699070    -3.89300183
Ag    -2.40600113    -1.48699070     3.89300183
Ag    -2.40600113     1.48699070     3.89300183
Ag    -2.40600113    -1.48699070    -3.89300183
Ag    -2.40600113     1.48699070    -3.89300183
Ag     3.89300183     2.40600113    -1.48699070
Ag     3.89300183     2.40600113     1.48699070
Ag    -3.89300183     2.40600113    -1.48699070
Ag    -3.89300183     2.40600113     1.48699070
Ag     3.89300183    -2.40600113    -1.48699070
Ag     3.89300183    -2.40600113     1.48699070
Ag    -3.89300183    -2.40600113    -1.48699070
Ag    -3.89300183    -2.40600113     1.48699070
Ag    -1.48699070     3.89300183     2.40600113
Ag     1.48699070     3.89300183     2.40600113
Ag    -1.48699070    -3.89300183     2.40600113
Ag     1.48699070    -3.89300183     2.40600113
Ag    -1.48699070     3.89300183    -2.40600113
Ag     1.48699070     3.89300183    -2.40600113
Ag    -1.48699070    -3.89300183    -2.40600113
Ag     1.48699070    -3.89300183    -2.40600113
